

 <DUALSPHYSICS5> Copyright (c) 2022 by
 Dr Jose M. Dominguez Alonso, Dr Alejandro Crespo,
 Prof. Moncho Gomez Gesteira, Prof. Benedict Rogers,
 Dr Georgios Fourtakas, Prof. Peter Stansby,
 Dr Renato Vacondio, Dr Corrado Altomare, Dr Angelo Tafuni,
 Dr Orlando Garcia Feal, Ivan Martinez Estevez,
 Dr Joseph O'Connor

 EPHYSLAB Environmental Physics Laboratory, Universidade de Vigo
 School of Mechanical, Aerospace and Civil Engineering, University of Manchester

 DualSPHysics is free software: you can redistribute it and/or
 modify it under the terms of the GNU Lesser General Public License
 as published by the Free Software Foundation, either version 2.1 of
 the License, or (at your option) any later version.

 DualSPHysics is distributed in the hope that it will be useful,
 but WITHOUT ANY WARRANTY; without even the implied warranty of
 MERCHANTABILITY or FITNESS FOR A PARTICULAR PURPOSE.  See the
 GNU Lesser General Public License for more details.

 You should have received a copy of the GNU Lesser General Public License
 along with DualSPHysics. If not, see <http://www.gnu.org/licenses/>.


DualSPHysics5 v5.2.254 beta (04-10-2022)
=========================================
[CUDA Capable device(s)]
  Detected 2 CUDA Capable device(s)
  CUDA Driver Version / Runtime Version: 11.4 / 11.7
 
Device 0: "Tesla V100-PCIE-16GB"
  CUDA Capability Major....: 7.0
  Global memory............: 16130 MBytes
  CUDA Cores...............: 5120 (80 Multiprocessors,  64 CUDA Cores/MP)
  GPU Max Clock rate.......: 1380 MHz (1.38 GHz)
  Memory Clock rate........: 877 Mhz
  Memory Bus Width.........: 4096-bit
  L2 Cache Size............: 6144 KBytes
  Constant memory..........: 64 KBytes
  Shared memory per block..: 48 KBytes
  Registers per block......: 65536
  Maximum threads per MP...: 2048
  Maximum threads per block: 1024
  Concurrent copy and kernel execution....: Yes with 7 copy engine(s)
  Run time limit on kernels...............: No
  Integrated GPU sharing Host Memory......: No
  Support host page-locked memory mapping.: Yes
  Device has ECC support..................: Enabled
  Device supports Unified Addressing (UVA): Yes
  Device PCI (Domain / Bus / location)....: 0 / 94 / 0
  Device supports P2P and RDMA............: Yes
  Device supports P2P from/to GPUs........: 1
 
Device 1: "Tesla V100-PCIE-16GB"
  CUDA Capability Major....: 7.0
  Global memory............: 16130 MBytes
  CUDA Cores...............: 5120 (80 Multiprocessors,  64 CUDA Cores/MP)
  GPU Max Clock rate.......: 1380 MHz (1.38 GHz)
  Memory Clock rate........: 877 Mhz
  Memory Bus Width.........: 4096-bit
  L2 Cache Size............: 6144 KBytes
  Constant memory..........: 64 KBytes
  Shared memory per block..: 48 KBytes
  Registers per block......: 65536
  Maximum threads per MP...: 2048
  Maximum threads per block: 1024
  Concurrent copy and kernel execution....: Yes with 7 copy engine(s)
  Run time limit on kernels...............: No
  Integrated GPU sharing Host Memory......: No
  Support host page-locked memory mapping.: Yes
  Device has ECC support..................: Enabled
  Device supports Unified Addressing (UVA): Yes
  Device PCI (Domain / Bus / location)....: 0 / 216 / 0
  Device supports P2P and RDMA............: Yes
  Device supports P2P from/to GPUs........: 0
 
[GPU Hardware]
Device default: 0 "Tesla V100-PCIE-16GB"
Compute capability: 7.0
Memory global: 16130 MB
Memory shared: 49152 Bytes
 
[Initialising JSphGpuSingle  18-01-2023 12:02:02]
ProgramFile=".../bin/linux/DualSPHysics5.2_linux64"
ExecutionDir=".../constantinos/DualSPH/case-Watanabe_etal"
XmlFile=".../case-Watanabe_etal/CaseKfric46_out/CaseKfric46.xml"
OutputDir=".../DualSPH/case-Watanabe_etal/CaseKfric46_out"
OutputDataDir=".../case-Watanabe_etal/CaseKfric46_out/data"
XML-App: GenCase v5.0.273 (07-10-2022)
XML-Vars (uservars + ctes): Aaxis=[0.03]  Baxis=[0.021]  BoulderRho=[2800]  BoulderVol=[-6.75e-06]  Boulder_dist=[0.04]  Boulderpx=[-0.0415]  Boulderpy=[0.138]  Boulderpz=[0.0075]  Bouldersx=[0.018]  Bouldersy=[0.027]  Bouldersz=[0.012]  Caxis=[0.015]  Cliffsx=[5]  Cliffsy=[0.3]  Cliffsz=[0.2]  Dpm=[0.0015]  MResId=[0]  TankWidth=[0.3]  Tankpx1=[0]  Tankpy1=[0]  Tankpz2=[0.2]  Tanksx1=[-7]  Tanksx2=[5]  Tanksy1=[0.3]  Tanksy2=[0.3]  Tanksz1=[0.6]  Tanksz2=[0.4]  Watersx=[3]  Watersy=[0.3]  Watersz=[0.3]  Wh=[0.3]  Wh_DP=[100]  CaseName=["CaseKfric46"]  Data2D=[0]  Data2DPosy=[0]  H=[0.00519615]  KernelSize=[0.0103923]  B=[166490]  Gamma=[7]  Rhop0=[1000]  Dp=[0.003]  Gravity_x=[0]  Gravity_y=[0]  Gravity_z=[-9.81]  MassFluid=[2.7e-05]  MassBound=[2.7e-05]
XML-Vars (parameters): TimeMax=[7.5]  TimeOut=[0.015]
Threads by host for parallel execution in Chrono: 1
**Basic case configuration is loaded
**Special case configuration is loaded
Loading initial state of particles...
Loaded particles: 17291434
MapRealPos(border)=(-7.00826,-0.00925981,-0.00925981)-(5.01026,0.30926,0.60026)
MapRealPos(final)=(-7.00826,-0.00925981,-0.00925981)-(5.01026,0.30926,0.722164)
**Initial state of particles is loaded
PosCellCode="13_10_9 (8192,1024,512)"
PosCellSize=0.010392  (1 x KernelSize)
**3D-Simulation parameters:
CaseName="CaseKfric46"
RunName="CaseKfric46"
Symmetry=False
SavePosDouble=False
SvExtraParts=""
SaveFtAce=False
SvTimers=True
Boundary="mDBC"
  SlipMode="DBC vel=0"
  mDBC-Corrector=False
  mDBC-FastSingle=True
  mDBC-Threshold=0
StepAlgorithm="Symplectic"
Kernel="Wendland"
  Wendland.awen=2977845
  Wendland.bwen=-2.865446e+09
Viscosity="Laminar+SPS"
  Visco=0.000001
  ViscoBoundFactor=1
DensityDiffusion="Fourtakas et al 2019 (full)"
  DensityDiffusionValue=0.1

*** WARNING: It is advised that selected DDT: 'Fourtakas et al 2019 (full)' is used with several boundary layers of particles when h/dp>1.5 (2h <= layers*Dp)

Shifting="NoFixed"
  ShiftCoef=-2
  ShiftTFS=2.75
  ShiftDomain="Full"
RigidAlgorithm="CHRONO"
FloatingCount=1
FtPause=0
FtConstraints=False
FtIgnoreRadius=False
CaseNp=17291434
CaseNbound=7391434
CaseNfixed=7391084
CaseNmoving=0
CaseNfloat=350
CaseNfluid=9900000
PeriodicActive="None"
Dp=0.003
KernelH=0.005196  (CoefficientH=1; H/Dp=1.73205)
KernelSize=0.0103923
CteB=166489.7
Gamma=7
RhopZero=1000
Cs0=34.13836597217271
CFLnumber=0.2
DtIni=0.0001522085813707261
DtMin=7.610429181940538e-06
DtAllParticles=False
MassFluid=0.000027
MassBound=0.000027
SpsSmag=0.0000000432
SpsBlin=0.0000000132
FtPause=0
TimeMax=7.5
TimePart=0.015
Gravity=(0,0,-9.81)
NpMinimum=7391434
RhopOut=True
RhopOutMin=700
RhopOutMax=1300
WrnPartsOut=True
CellMode="Full"
ScellDiv=1
MapCells=(1157,31,71)
CellDomFixed=False
**Requested GPU memory for 17291562 particles: 4287.5 MB (0 times).
NormalDataFile="CaseKfric46_out/CaseKfric46_Normals.nbi4"
DomCells=(1157,31,71)
DomCellCode="1+14_8_9"
 
BlockSize calculation mode: Fixed.
  BsForcesBound=128 (48 regs)
  BsForcesFluid=128 (72 regs)
 
**CellDiv: Requested gpu memory for 18156133 particles: 140.2 MB.
**CellDiv: Requested gpu memory for 691200 cells (CellMode=Full): 10.5 MB.
 
RunMode="Pos-Cell - Single-GPU"
 
Particle summary:
  Fixed....: 7391084  id:(0-7391083)   MKs:1 (10)
  Moving...: 0
  Floating.: 350  id:(7391084-7391433)   MKs:1 (60)
  Fluid....: 9900000  id:(7391434-17291433)   MKs:1 (1)

Total particles: 17291434 (bound=7391434 (fx=7391084 mv=0 ft=350) fluid=9900000)
Total MK blocks: 3 (bound=2 (fx=1 mv=0 ft=1) fluid=1)
 
Chrono Objects configuration:
  DSPHChrono version: 5.0.232
  Chrono version....: 4.0.0.012
  Data directory....: [CaseKfric46_out/chrono_objs/]
  Solver ...........: Barzilai-Borwein
  Time Stepper......: Euler Implicit Linearized
  Collisions........: True
    Collision dp....: 0.5
    Contact Method..: Non-Smooth Contacts (NSC)
    Collision shapes: 24
  Execution mode....: Single Core
  OpenMP Threads....: 1
  Bodies............: 2
  Links.............: 0
  Body_0000 "boulder" -  type: Floating
    MkBound......: 50
    Mass.........: 0.02646
    Center.......: (-0.0325,0.1515,0.0135)
    Inertia......: (2.44094e-06,1.42884e-06,2.91722e-06) (xx,yy,zz)
    Inertia......: (-7.78674e-23,1.4344e-23,-1.38317e-23) (xy,yz,xz)
    Kfric........: 0.46 
    Restitution..: 0.45
    ModelFile....: boulder_mkb0050.obj
    ModelNormal..: Original
  Body_0001 "tank" -  type: Fixed
    MkBound......: 0
    Kfric........: 0.46 
    Restitution..: 0.8
    ModelFile....: tank_mkb0000.obj
    ModelNormal..: Original
 
Allocated memory in CPU: 1556286928 (1484.19 MB)
Allocated memory in GPU: 4653825889 (4438.23 MB)
Part_0000        17291434 particles successfully stored

[WARNINGS]
1. It is advised that selected DDT: 'Fourtakas et al 2019 (full)' is used with several boundary layers of particles when h/dp>1.5 (2h <= layers*Dp)

[Initialising simulation (ivflp27j)  18-01-2023 12:02:06]
PART       PartTime      TotalSteps    Steps    Time/Sec   Finish time        
=========  ============  ============  =======  =========  ===================
  Progress 0.04% in 30.2s. Estimated finish time: 19-01-2023 07:58:54
  Progress 0.08% in 60.1s. Estimated finish time: 19-01-2023 08:24:24
Part_0001      0.015004           492      492    9984.92  19-01-2023 08:50:13
Part_0002      0.030002           991      499   10141.98  19-01-2023 09:00:01
Part_0003      0.045011          1496      505   10242.49  19-01-2023 09:07:29
Part_0004      0.060019          2007      511   10379.32  19-01-2023 09:15:30
Part_0005      0.075010          2523      516   10519.30  19-01-2023 09:23:48
Part_0006      0.090011          3050      527   10779.56  19-01-2023 09:34:45
Part_0007      0.105017          3579      529   10836.07  19-01-2023 09:43:36
Part_0008      0.120028          4113      534   10928.61  19-01-2023 09:51:40
Part_0009      0.135012          4652      539   11066.88  19-01-2023 09:59:52
Part_0010      0.150023          5198      546   11208.41  19-01-2023 10:08:12
Part_0011      0.165012          5757      559   11552.25  19-01-2023 10:18:54
Part_0012      0.180012          6338      581   11997.54  19-01-2023 10:32:29
Part_0013      0.195013          6910      572   11812.41  19-01-2023 10:42:11
Part_0014      0.210002          7512      602   12475.13  19-01-2023 10:56:25
Part_0015      0.225023          8105      593   12305.32  19-01-2023 11:07:21
Part_0016      0.240014          8688      583   12188.38  19-01-2023 11:15:59
Part_0017      0.255003          9283      595   12484.60  19-01-2023 11:25:47
Part_0018      0.270007          9880      597   12566.94  19-01-2023 11:35:05
Part_0019      0.285003         10491      611   12916.32  19-01-2023 11:45:41
Part_0020      0.300021         11112      621   13175.03  19-01-2023 11:56:52
Part_0021      0.315013         11734      622   13236.18  19-01-2023 12:07:20
Part_0022      0.330014         12378      644   13729.19  19-01-2023 12:19:39
Part_0023      0.345009         13020      642   13750.18  19-01-2023 12:31:00
Part_0024      0.360018         13652      632   13519.28  19-01-2023 12:40:13
Part_0025      0.375012         14319      667   14319.17  19-01-2023 12:52:40
Part_0026      0.390001         14979      660   14179.78  19-01-2023 13:03:30
Part_0027      0.405005         15635      656   14081.49  19-01-2023 13:13:06
Part_0028      0.420009         16296      661   14197.38  19-01-2023 13:22:31
Part_0029      0.435002         16976      680   14631.74  19-01-2023 13:33:10
Part_0030      0.450001         17654      678   14594.82  19-01-2023 13:42:55
Part_0031      0.465006         18338      684   14725.80  19-01-2023 13:52:36
Part_0032      0.480006         19030      692   14948.52  19-01-2023 14:02:33
Part_0033      0.495010         19716      686   14793.70  19-01-2023 14:11:18
Part_0034      0.510021         20415      699   15084.33  19-01-2023 14:20:37
Part_0035      0.525015         21107      692   14952.75  19-01-2023 14:28:54
Part_0036      0.540003         21797      690   14911.64  19-01-2023 14:36:36
Part_0037      0.555014         22493      696   15033.61  19-01-2023 14:44:18
Part_0038      0.570019         23189      696   15044.36  19-01-2023 14:51:38
Part_0039      0.585011         23883      694   15016.84  19-01-2023 14:58:29
Part_0040      0.600004         24574      691   14961.25  19-01-2023 15:04:50
Part_0041      0.615011         25272      698   15084.06  19-01-2023 15:11:14
Part_0042      0.630018         25967      695   15045.97  19-01-2023 15:17:14
Part_0043      0.645018         26658      691   14967.51  19-01-2023 15:22:43
Part_0044      0.660011         27343      685   14828.39  19-01-2023 15:27:34
Part_0045      0.675013         28035      692   14980.11  19-01-2023 15:32:36
Part_0046      0.690001         28717      682   14777.88  19-01-2023 15:36:53
Part_0047      0.705011         29399      682   14764.15  19-01-2023 15:40:56
Part_0048      0.720017         30083      684   14807.32  19-01-2023 15:44:57
Part_0049      0.735001         30767      684   14825.31  19-01-2023 15:48:49
Part_0050      0.750020         31445      678   14660.30  19-01-2023 15:52:08
Part_0051      0.765007         32120      675   14626.12  19-01-2023 15:55:14
Part_0052      0.780017         32792      672   14535.62  19-01-2023 15:58:00
Part_0053      0.795019         33473      681   14736.47  19-01-2023 16:01:08
Part_0054      0.810007         34146      673   14581.44  19-01-2023 16:03:48
Part_0055      0.825001         34812      666   14437.24  19-01-2023 16:06:02
Part_0056      0.840012         35482      670   14492.02  19-01-2023 16:08:19
Part_0057      0.855020         36148      666   14452.78  19-01-2023 16:10:26
Part_0058      0.870016         36810      662   14341.08  19-01-2023 16:12:14
Part_0059      0.885016         37475      665   14412.15  19-01-2023 16:14:07
Part_0060      0.900019         38132      657   14248.75  19-01-2023 16:15:37
Part_0061      0.915004         38792      660   14308.66  19-01-2023 16:17:10
Part_0062      0.930018         39452      660   14282.23  19-01-2023 16:18:38
Part_0063      0.945003         40111      659   14314.95  19-01-2023 16:20:05
Part_0064      0.960006         40771      660   14326.36  19-01-2023 16:21:33
Part_0065      0.975014         41432      661   14314.45  19-01-2023 16:22:56
Part_0066      0.990023         42088      656   14253.09  19-01-2023 16:24:09
Part_0067      1.005011         42743      655   14221.49  19-01-2023 16:25:17
Part_0068      1.020009         43399      656   14206.07  19-01-2023 16:26:21
Part_0069      1.035003         44057      658   14256.07  19-01-2023 16:27:29
Part_0070      1.050003         44712      655   14194.60  19-01-2023 16:28:28
Part_0071      1.065023         45363      651   14077.72  19-01-2023 16:29:13
Part_0072      1.080004         46017      654   14241.70  19-01-2023 16:30:14
Part_0073      1.095020         46673      656   14205.67  19-01-2023 16:31:09
Part_0074      1.110003         47326      653   14148.51  19-01-2023 16:31:58
Part_0075      1.125005         47976      650   14068.30  19-01-2023 16:32:37
Part_0076      1.140011         48624      648   14030.88  19-01-2023 16:33:11
Part_0077      1.155021         49295      671   14499.28  19-01-2023 16:34:30
Part_0078      1.170021         49947      652   14121.28  19-01-2023 16:35:10
Part_0079      1.185004         50594      647   14038.67  19-01-2023 16:35:43
Part_0080      1.200018         51243      649   14044.49  19-01-2023 16:36:14
Part_0081      1.215003         51887      644   13953.71  19-01-2023 16:36:37
Part_0082      1.230018         52535      648   14008.07  19-01-2023 16:37:03
Part_0083      1.245021         53177      642   13879.95  19-01-2023 16:37:18
Part_0084      1.260008         53822      645   13962.56  19-01-2023 16:37:39
Part_0085      1.275014         54466      644   13939.76  19-01-2023 16:37:59
Part_0086      1.290013         55106      640   13926.63  19-01-2023 16:38:15
Part_0087      1.305015         55747      641   13875.55  19-01-2023 16:38:29
Part_0088      1.320010         56384      637   13806.88  19-01-2023 16:38:35
Part_0089      1.335004         57025      641   13876.03  19-01-2023 16:38:47
Part_0090      1.350016         57663      638   13812.02  19-01-2023 16:38:53
Part_0091      1.365017         58299      636   13782.49  19-01-2023 16:38:58
Part_0092      1.380011         58938      639   13896.34  19-01-2023 16:39:10
Part_0093      1.395016         59577      639   13855.45  19-01-2023 16:39:20
Part_0094      1.410014         60213      636   13808.54  19-01-2023 16:39:26
Part_0095      1.425013         60848      635   13821.02  19-01-2023 16:39:33
Part_0096      1.440011         61481      633   13745.98  19-01-2023 16:39:33
Part_0097      1.455003         62118      637   13835.33  19-01-2023 16:39:40
Part_0098      1.470011         62789      671   14553.18  19-01-2023 16:40:43
Part_0099      1.485014         63622      833   18051.72  19-01-2023 16:46:08
Part_0100      1.500001         64452      830   18010.00  19-01-2023 16:51:25
Part_0101      1.515017         65145      693   15039.21  19-01-2023 16:52:54
Part_0102      1.530009         65843      698   15201.29  19-01-2023 16:54:34
Part_0103      1.545007         66489      646   14006.55  19-01-2023 16:54:45
Part_0104      1.560018         67128      639   13836.85  19-01-2023 16:54:44
Part_0105      1.575023         67765      637   13795.37  19-01-2023 16:54:39
Part_0106      1.590014         68398      633   13745.72  19-01-2023 16:54:31
Part_0107      1.605022         69035      637   13822.93  19-01-2023 16:54:28
Part_0108      1.620016         69668      633   13739.93  19-01-2023 16:54:21
Part_0109      1.635011         70297      629   13635.44  19-01-2023 16:54:05
Part_0110      1.650009         70927      630   13622.29  19-01-2023 16:53:49
Part_0111      1.665016         71562      635   13724.84  19-01-2023 16:53:40
Part_0112      1.680019         72194      632   13668.07  19-01-2023 16:53:28
Part_0113      1.695009         72822      628   13588.24  19-01-2023 16:53:11
Part_0114      1.710004         73451      629   13630.86  19-01-2023 16:52:56
Part_0115      1.725007         74084      633   13681.78  19-01-2023 16:52:46
Part_0116      1.740016         74709      625   13517.51  19-01-2023 16:52:25
Part_0117      1.755002         75346      637   13796.79  19-01-2023 16:52:21
Part_0118      1.770016         76009      663   14330.52  19-01-2023 16:52:53
Part_0119      1.785004         76756      747   16197.36  19-01-2023 16:55:21
Part_0120      1.800015         77454      698   15126.35  19-01-2023 16:56:39
Part_0121      1.815012         78117      663   14373.14  19-01-2023 16:57:11
Part_0122      1.830022         78749      632   13684.67  19-01-2023 16:56:58
Part_0123      1.845017         79393      644   13958.45  19-01-2023 16:57:04
Part_0124      1.860016         80073      680   14712.97  19-01-2023 16:57:53
Part_0125      1.875023         80714      641   13894.09  19-01-2023 16:57:54
**CellDiv: Requested gpu memory for 752896 cells (CellMode=Full): 11.5 MB.
Part_0126      1.890019         81333      619   13425.02  19-01-2023 16:57:27
Part_0127      1.905001         81955      622   13507.50  19-01-2023 16:57:05
Part_0128      1.920013         82589      634   13740.81  19-01-2023 16:56:57
Part_0129      1.935003         83251      662   14375.55  19-01-2023 16:57:25
**CellDiv: Requested gpu memory for 800640 cells (CellMode=Full): 12.2 MB.
Part_0130      1.950017         83940      689   14911.54  19-01-2023 16:58:25
Part_0131      1.965002         84622      682   14817.25  19-01-2023 16:59:18
Part_0132      1.980022         85324      702   15238.94  19-01-2023 17:00:34
Part_0133      1.995020         86021      697   15107.53  19-01-2023 17:01:42
Part_0134      2.010007         86707      686   14885.55  19-01-2023 17:02:36
Part_0135      2.025001         87438      731   15814.41  19-01-2023 17:04:21
Part_0136      2.040002         88146      708   15341.92  19-01-2023 17:05:38
Part_0137      2.055021         88830      684   14824.79  19-01-2023 17:06:27
Part_0138      2.070015         89503      673   14610.07  19-01-2023 17:07:02
Part_0139      2.085006         90198      695   15086.16  19-01-2023 17:08:03
Part_0140      2.100007         90857      659   14280.93  19-01-2023 17:08:20
Part_0141      2.115004         91529      672   14564.34  19-01-2023 17:08:52
Part_0142      2.130003         92217      688   14901.07  19-01-2023 17:09:40
Part_0143      2.145011         92893      676   14626.37  19-01-2023 17:10:15
Part_0144      2.160009         93563      670   14506.33  19-01-2023 17:10:41
Part_0145      2.175014         94216      653   14136.62  19-01-2023 17:10:49
Part_0146      2.190003         94871      655   14224.06  19-01-2023 17:11:02
Part_0147      2.205022         95537      666   14407.15  19-01-2023 17:11:22
Part_0148      2.220016         96196      659   14261.64  19-01-2023 17:11:36
Part_0149      2.235006         96857      661   14349.99  19-01-2023 17:11:54
Part_0150      2.250011         97512      655   14178.46  19-01-2023 17:12:03
Part_0151      2.265009         98174      662   14350.27  19-01-2023 17:12:20
Part_0152      2.280004         98857      683   14829.29  19-01-2023 17:13:01
Part_0153      2.295022         99510      653   14140.31  19-01-2023 17:13:08
Part_0154      2.310009        100168      658   14283.05  19-01-2023 17:13:21
Part_0155      2.325021        100835      667   14419.87  19-01-2023 17:13:41
Part_0156      2.340018        101505      670   14502.72  19-01-2023 17:14:05
Part_0157      2.355000        102193      688   14890.23  19-01-2023 17:14:46
Part_0158      2.370020        102921      728   15739.56  19-01-2023 17:16:08
Part_0159      2.385017        103591      670   14529.89  19-01-2023 17:16:31
Part_0160      2.400019        104310      719   15575.35  19-01-2023 17:17:44
Part_0161      2.415012        105092      782   16931.55  19-01-2023 17:19:58
Part_0162      2.430001        105856      764   16560.31  19-01-2023 17:21:54
Part_0163      2.445016        106527      671   14523.73  19-01-2023 17:22:14
Part_0164      2.460001        107210      683   14804.11  19-01-2023 17:22:47
Part_0165      2.475006        107911      701   15208.51  19-01-2023 17:23:38
Part_0166      2.490007        108600      689   14933.42  19-01-2023 17:24:16
Part_0167      2.505023        109291      691   15007.58  19-01-2023 17:24:57
Part_0168      2.520014        109942      651   14127.89  19-01-2023 17:24:58
Part_0169      2.535013        110588      646   14048.13  19-01-2023 17:24:56
**CellDiv: Requested gpu memory for 872608 cells (CellMode=Full): 13.3 MB.
Part_0170      2.550001        111250      662   14374.08  19-01-2023 17:25:07
Part_0171      2.565005        111894      644   13974.81  19-01-2023 17:25:02
Part_0172      2.580015        112542      648   14046.39  19-01-2023 17:25:00
Part_0173      2.595019        113191      649   14071.92  19-01-2023 17:24:58
Part_0174      2.610011        113842      651   14164.31  19-01-2023 17:25:00
Part_0175      2.625013        114492      650   14119.79  19-01-2023 17:25:01
Part_0176      2.640004        115144      652   14195.88  19-01-2023 17:25:05
Part_0177      2.655018        115792      648   14074.41  19-01-2023 17:25:04
Part_0178      2.670004        116433      641   13953.17  19-01-2023 17:24:57
Part_0179      2.685012        117071      638   13866.31  19-01-2023 17:24:47
Part_0180      2.700015        117717      646   14040.20  19-01-2023 17:24:45
Part_0181      2.715020        118360      643   13931.69  19-01-2023 17:24:38
Part_0182      2.730011        119008      648   14059.49  19-01-2023 17:24:37
Part_0183      2.745016        119661      653   14147.06  19-01-2023 17:24:38
Part_0184      2.760001        120319      658   14310.07  19-01-2023 17:24:47
Part_0185      2.775002        120977      658   14222.60  19-01-2023 17:24:52
Part_0186      2.790018        121629      652   14119.47  19-01-2023 17:24:53
Part_0187      2.805000        122287      658   14244.42  19-01-2023 17:24:58
Part_0188      2.820016        122928      641   13840.34  19-01-2023 17:24:48
Part_0189      2.835011        123567      639   13838.33  19-01-2023 17:24:38
Part_0190      2.850014        124221      654   14154.78  19-01-2023 17:24:40
Part_0191      2.865021        124926      705   15248.64  19-01-2023 17:25:25
Part_0192      2.880013        125626      700   15169.58  19-01-2023 17:26:06
Part_0193      2.895019        126261      635   13762.34  19-01-2023 17:25:53
Part_0194      2.910016        126888      627   13618.08  19-01-2023 17:25:34
Part_0195      2.925017        127514      626   13581.01  19-01-2023 17:25:14
Part_0196      2.940006        128134      620   13513.17  19-01-2023 17:24:50
Part_0197      2.955017        128760      626   13552.74  19-01-2023 17:24:30
Part_0198      2.970012        129392      632   13720.91  19-01-2023 17:24:16
Part_0199      2.985001        130105      713   15450.91  19-01-2023 17:25:06
Part_0200      3.000016        131048      943   20371.69  19-01-2023 17:29:02
Part_0201      3.015009        131888      840   18205.80  19-01-2023 17:31:34
**CellDiv: Requested gpu memory for 935360 cells (CellMode=Full): 14.3 MB.
Part_0202      3.030016        132625      737   15947.88  19-01-2023 17:32:40
**CellDiv: Requested gpu memory for 1012480 cells (CellMode=Full): 15.4 MB.
Part_0203      3.045022        133286      661   14293.63  19-01-2023 17:32:45
**CellDiv: Requested gpu memory for 1091168 cells (CellMode=Full): 16.6 MB.
**CellDiv: Requested gpu memory for 1168768 cells (CellMode=Full): 17.8 MB.
Part_0204      3.060014        133942      656   14225.06  19-01-2023 17:32:47
**CellDiv: Requested gpu memory for 1248128 cells (CellMode=Full): 19.0 MB.
Part_0205      3.075021        134581      639   13827.63  19-01-2023 17:32:35
Part_0206      3.090023        135217      636   13816.90  19-01-2023 17:32:23
**CellDiv: Requested gpu memory for 1327872 cells (CellMode=Full): 20.3 MB.
Part_0207      3.105005        135873      656   14276.41  19-01-2023 17:32:27
**CellDiv: Requested gpu memory for 1408000 cells (CellMode=Full): 21.5 MB.
Part_0208      3.120015        136517      644   13984.50  19-01-2023 17:32:21
Part_0209      3.135011        137165      648   14058.86  19-01-2023 17:32:17
Part_0210      3.150008        137824      659   14296.15  19-01-2023 17:32:21
**CellDiv: Requested gpu memory for 1494080 cells (CellMode=Full): 22.8 MB.
Part_0211      3.165001        138472      648   14076.44  19-01-2023 17:32:18
Part_0212      3.180001        139112      640   13932.63  19-01-2023 17:32:10
Part_0213      3.195009        139760      648   14096.29  19-01-2023 17:32:08
Part_0214      3.210002        140408      648   14104.94  19-01-2023 17:32:06
Part_0215      3.225019        141060      652   14203.26  19-01-2023 17:32:08
Part_0216      3.240000        141710      650   14200.05  19-01-2023 17:32:09
Part_0217      3.255004        142345      635   13841.23  19-01-2023 17:31:58
Part_0218      3.270010        142978      633   13783.32  19-01-2023 17:31:45
Part_0219      3.285001        143618      640   13941.44  19-01-2023 17:31:38
Part_0220      3.300005        144262      644   13999.43  19-01-2023 17:31:33
Part_0221      3.315013        144898      636   13814.15  19-01-2023 17:31:21
Part_0222      3.330016        145528      630   13688.60  19-01-2023 17:31:05
Part_0223      3.345013        146152      624   13508.46  19-01-2023 17:30:43
Part_0224      3.360017        146778      626   13571.65  19-01-2023 17:30:24
Part_0225      3.375019        147397      619   13444.57  19-01-2023 17:30:00
Part_0226      3.390015        148029      632   13704.27  19-01-2023 17:29:46
Part_0227      3.405006        148637      608   13169.26  19-01-2023 17:29:14
Part_0228      3.420008        149254      617   13367.87  19-01-2023 17:28:49
Part_0229      3.435001        149865      611   13252.38  19-01-2023 17:28:20
Part_0230      3.450006        150486      621   13464.54  19-01-2023 17:27:59
Part_0231      3.465019        151097      611   13241.97  19-01-2023 17:27:29
Part_0232      3.480000        151721      624   13547.74  19-01-2023 17:27:11
Part_0233      3.495001        152334      613   13321.37  19-01-2023 17:26:45
Part_0234      3.510016        152940      606   13170.93  19-01-2023 17:26:15
Part_0235      3.525001        153547      607   13170.26  19-01-2023 17:25:45
Part_0236      3.540024        154169      622   13453.65  19-01-2023 17:25:25
Part_0237      3.555001        154785      616   13352.12  19-01-2023 17:25:01
Part_0238      3.570021        155402      617   13341.41  19-01-2023 17:24:36
Part_0239      3.585001        156011      609   13211.34  19-01-2023 17:24:09
Part_0240      3.600020        156616      605   13093.03  19-01-2023 17:23:37
Part_0241      3.615000        157214      598   12977.41  19-01-2023 17:23:03
Part_0242      3.630006        157828      614   13298.41  19-01-2023 17:22:38
Part_0243      3.645008        158454      626   13585.40  19-01-2023 17:22:22
Part_0244      3.660018        159080      626   13587.58  19-01-2023 17:22:07
Part_0245      3.675020        159699      619   13449.71  19-01-2023 17:21:48
Part_0246      3.690019        160316      617   13416.24  19-01-2023 17:21:28
Part_0247      3.705024        160937      621   13517.97  19-01-2023 17:21:11
Part_0248      3.720007        161559      622   13594.23  19-01-2023 17:20:57
Part_0249      3.735019        162186      627   13625.71  19-01-2023 17:20:43
Part_0250      3.750024        162816      630   13735.24  19-01-2023 17:20:33
Part_0251      3.765010        163451      635   13838.64  19-01-2023 17:20:26
Part_0252      3.780001        164090      639   13953.82  19-01-2023 17:20:23
Part_0253      3.795007        164730      640   13979.31  19-01-2023 17:20:21
Part_0254      3.810011        165366      636   13877.66  19-01-2023 17:20:15
Part_0255      3.825016        166001      635   13850.85  19-01-2023 17:20:09
Part_0256      3.840005        166631      630   13757.72  19-01-2023 17:20:00
Part_0257      3.855023        167256      625   13618.75  19-01-2023 17:19:46
Part_0258      3.870024        167878      622   13597.44  19-01-2023 17:19:33
Part_0259      3.885010        168505      627   13697.32  19-01-2023 17:19:23
Part_0260      3.900018        169128      623   13587.26  19-01-2023 17:19:09
Part_0261      3.915006        169755      627   13703.28  19-01-2023 17:18:59
Part_0262      3.930014        170389      634   13815.85  19-01-2023 17:18:52
Part_0263      3.945000        171023      634   13851.64  19-01-2023 17:18:46
Part_0264      3.960015        171660      637   13879.55  19-01-2023 17:18:41
Part_0265      3.975021        172291      631   13752.39  19-01-2023 17:18:33
Part_0266      3.990022        172916      625   13599.66  19-01-2023 17:18:20
Part_0267      4.005020        173543      627   13619.11  19-01-2023 17:18:08
Part_0268      4.020001        174172      629   13681.35  19-01-2023 17:17:58
Part_0269      4.035013        174797      625   13553.03  19-01-2023 17:17:43
Part_0270      4.050005        175422      625   13572.96  19-01-2023 17:17:31
Part_0271      4.065005        176037      615   13362.40  19-01-2023 17:17:12
Part_0272      4.080017        176657      620   13420.25  19-01-2023 17:16:55
Part_0273      4.095015        177279      622   13445.64  19-01-2023 17:16:38
Part_0274      4.110009        177900      621   13434.46  19-01-2023 17:16:22
Part_0275      4.125007        178516      616   13298.81  19-01-2023 17:16:02
Part_0276      4.140020        179131      615   13305.08  19-01-2023 17:15:42
Part_0277      4.155004        179743      612   13223.17  19-01-2023 17:15:20
Part_0278      4.170016        180350      607   13140.72  19-01-2023 17:14:57
Part_0279      4.185012        180961      611   13240.37  19-01-2023 17:14:35
Part_0280      4.200011        181570      609   13214.46  19-01-2023 17:14:14
Part_0281      4.215007        182182      612   13284.93  19-01-2023 17:13:55
Part_0282      4.230014        182795      613   13274.71  19-01-2023 17:13:35
Part_0283      4.245018        183400      605   13099.85  19-01-2023 17:13:10
Part_0284      4.260015        184017      617   13338.90  19-01-2023 17:12:53
Part_0285      4.275022        184634      617   13321.62  19-01-2023 17:12:35
Part_0286      4.290013        185253      619   13366.22  19-01-2023 17:12:19
Part_0287      4.305023        185862      609   13142.29  19-01-2023 17:11:56
Part_0288      4.320016        186465      603   13018.23  19-01-2023 17:11:30
Part_0289      4.335000        187070      605   13099.10  19-01-2023 17:11:07
Part_0290      4.350025        187676      606   13059.19  19-01-2023 17:10:43
Part_0291      4.365014        188279      603   13001.69  19-01-2023 17:10:17
Part_0292      4.380006        188876      597   12860.49  19-01-2023 17:09:48
Part_0293      4.395011        189467      591   12725.81  19-01-2023 17:09:16
Part_0294      4.410015        190058      591   12742.29  19-01-2023 17:08:44
Part_0295      4.425006        190649      591   12738.47  19-01-2023 17:08:13
Part_0296      4.440024        191238      589   12688.72  19-01-2023 17:07:41
Part_0297      4.455025        191832      594   12815.27  19-01-2023 17:07:12
Part_0298      4.470023        192426      594   12817.86  19-01-2023 17:06:43
Part_0299      4.485018        193017      591   12758.31  19-01-2023 17:06:13
Part_0300      4.500011        193609      592   12750.18  19-01-2023 17:05:43
Part_0301      4.515016        194199      590   12689.23  19-01-2023 17:05:11
Part_0302      4.530006        194790      591   12732.07  19-01-2023 17:04:42
Part_0303      4.545007        195377      587   12629.58  19-01-2023 17:04:10
Part_0304      4.560003        195965      588   12692.60  19-01-2023 17:03:39
Part_0305      4.575013        196552      587   12621.97  19-01-2023 17:03:07
Part_0306      4.590019        197144      592   12733.46  19-01-2023 17:02:38
Part_0307      4.605001        197742      598   12903.04  19-01-2023 17:02:12
Part_0308      4.620016        198362      620   13315.09  19-01-2023 17:01:58
Part_0309      4.635002        198968      606   13044.55  19-01-2023 17:01:36
Part_0310      4.650009        199578      610   13103.44  19-01-2023 17:01:17
Part_0311      4.665007        200190      612   13153.11  19-01-2023 17:00:58
Part_0312      4.680017        200796      606   13013.70  19-01-2023 17:00:37
Part_0313      4.695001        201402      606   13028.46  19-01-2023 17:00:16
Part_0314      4.710018        202005      603   12981.85  19-01-2023 16:59:54
Part_0315      4.725024        202603      598   12856.73  19-01-2023 16:59:29
Part_0316      4.740007        203197      594   12765.92  19-01-2023 16:59:02
Part_0317      4.755004        203794      597   12809.94  19-01-2023 16:58:36
Part_0318      4.770005        204397      603   12949.80  19-01-2023 16:58:14
Part_0319      4.785010        205000      603   12939.12  19-01-2023 16:57:51
Part_0320      4.800026        205599      599   12856.06  19-01-2023 16:57:28
Part_0321      4.815018        206201      602   12953.82  19-01-2023 16:57:06
Part_0322      4.830011        206804      603   12955.04  19-01-2023 16:56:44
Part_0323      4.845016        207410      606   12997.07  19-01-2023 16:56:24
Part_0324      4.860011        208019      609   13063.26  19-01-2023 16:56:05
Part_0325      4.875010        208624      605   12984.82  19-01-2023 16:55:45
Part_0326      4.890020        209236      612   13146.45  19-01-2023 16:55:28
Part_0327      4.905005        209844      608   13040.07  19-01-2023 16:55:09
Part_0328      4.920009        210447      603   12926.83  19-01-2023 16:54:47
Part_0329      4.935014        211051      604   12948.74  19-01-2023 16:54:27
Part_0330      4.950013        211648      597   12800.59  19-01-2023 16:54:03
Part_0331      4.965002        212245      597   12798.09  19-01-2023 16:53:39
Part_0332      4.980016        212843      598   12800.62  19-01-2023 16:53:15
Part_0333      4.995014        213441      598   12820.33  19-01-2023 16:52:52
Part_0334      5.010019        214038      597   12794.26  19-01-2023 16:52:28
Part_0335      5.025010        214641      603   12937.23  19-01-2023 16:52:08
Part_0336      5.040013        215241      600   12876.28  19-01-2023 16:51:46
Part_0337      5.055025        215842      601   12905.42  19-01-2023 16:51:26
Part_0338      5.070013        216447      605   12972.64  19-01-2023 16:51:06
Part_0339      5.085019        217051      604   12934.83  19-01-2023 16:50:46
Part_0340      5.100013        217654      603   12921.55  19-01-2023 16:50:27
Part_0341      5.115019        218257      603   12931.41  19-01-2023 16:50:07
Part_0342      5.130022        218849      592   12689.84  19-01-2023 16:49:43
Part_0343      5.145009        219438      589   12629.73  19-01-2023 16:49:16
Part_0344      5.160020        220025      587   12561.18  19-01-2023 16:48:48
Part_0345      5.175011        220608      583   12486.83  19-01-2023 16:48:20
Part_0346      5.190017        221196      588   12584.40  19-01-2023 16:47:53
Part_0347      5.205014        221787      591   12668.60  19-01-2023 16:47:28
Part_0348      5.220003        222368      581   12457.86  19-01-2023 16:47:00
Part_0349      5.235020        222950      582   12455.30  19-01-2023 16:46:31
Part_0350      5.250014        223530      580   12424.45  19-01-2023 16:46:02
Part_0351      5.265020        224111      581   12442.51  19-01-2023 16:45:32
Part_0352      5.280022        224694      583   12494.66  19-01-2023 16:45:05
Part_0353      5.295022        225274      580   12420.04  19-01-2023 16:44:36
Part_0354      5.310001        225857      583   12514.13  19-01-2023 16:44:09
Part_0355      5.325007        226445      588   12585.27  19-01-2023 16:43:44
Part_0356      5.340002        227034      589   12608.38  19-01-2023 16:43:19
Part_0357      5.355001        227628      594   12712.82  19-01-2023 16:42:57
Part_0358      5.370001        228221      593   12685.45  19-01-2023 16:42:34
Part_0359      5.385010        228818      597   12776.42  19-01-2023 16:42:14
Part_0360      5.400003        229426      608   13014.11  19-01-2023 16:41:58
Part_0361      5.415015        230033      607   12984.74  19-01-2023 16:41:42
Part_0362      5.430023        230637      604   12925.77  19-01-2023 16:41:25
Part_0363      5.445018        231246      609   13073.60  19-01-2023 16:41:11
Part_0364      5.460012        231855      609   13014.73  19-01-2023 16:40:56
Part_0365      5.475006        232466      611   13054.88  19-01-2023 16:40:42
Part_0366      5.490016        233086      620   13251.91  19-01-2023 16:40:32
Part_0367      5.505012        233692      606   12958.85  19-01-2023 16:40:15
Part_0368      5.520014        234298      606   12947.40  19-01-2023 16:40:00
Part_0369      5.535002        234900      602   12869.78  19-01-2023 16:39:42
Part_0370      5.550018        235503      603   12908.47  19-01-2023 16:39:24
Part_0371      5.565016        236107      604   12909.95  19-01-2023 16:39:08
Part_0372      5.580019        236713      606   12957.70  19-01-2023 16:38:52
Part_0373      5.595009        237318      605   12955.97  19-01-2023 16:38:37
Part_0374      5.610008        237928      610   13066.95  19-01-2023 16:38:24
Part_0375      5.625011        238545      617   13228.16  19-01-2023 16:38:13
Part_0376      5.640014        239157      612   13126.05  19-01-2023 16:38:01
Part_0377      5.655008        239767      610   13098.58  19-01-2023 16:37:48
Part_0378      5.670024        240374      607   13033.63  19-01-2023 16:37:35
Part_0379      5.685017        240975      601   12893.63  19-01-2023 16:37:18
Part_0380      5.700014        241574      599   12860.09  19-01-2023 16:37:01
Part_0381      5.715019        242177      603   12939.58  19-01-2023 16:36:46
Part_0382      5.730009        242777      600   12870.42  19-01-2023 16:36:29
Part_0383      5.745021        243376      599   12847.96  19-01-2023 16:36:12
Part_0384      5.760004        243976      600   12928.49  19-01-2023 16:35:57
Part_0385      5.775018        244580      604   12915.42  19-01-2023 16:35:42
Part_0386      5.790010        245184      604   12956.52  19-01-2023 16:35:27
Part_0387      5.805002        245784      600   12832.76  19-01-2023 16:35:11
Part_0388      5.820010        246380      596   12734.60  19-01-2023 16:34:52
Part_0389      5.835022        246973      593   12661.60  19-01-2023 16:34:32
Part_0390      5.850017        247567      594   12698.13  19-01-2023 16:34:12
Part_0391      5.865015        248161      594   12707.61  19-01-2023 16:33:53
Part_0392      5.880023        248752      591   12628.83  19-01-2023 16:33:33
Part_0393      5.895024        249340      588   12564.51  19-01-2023 16:33:12
Part_0394      5.910024        249939      599   12799.46  19-01-2023 16:32:55
Part_0395      5.925009        250529      590   12617.38  19-01-2023 16:32:34
Part_0396      5.940003        251118      589   12591.28  19-01-2023 16:32:14
Part_0397      5.955006        251704      586   12543.61  19-01-2023 16:31:52
Part_0398      5.970022        252297      593   12655.87  19-01-2023 16:31:33
Part_0399      5.985002        252883      586   12556.81  19-01-2023 16:31:12
Part_0400      6.000008        253471      588   12552.29  19-01-2023 16:30:50
Part_0401      6.015019        254057      586   12513.46  19-01-2023 16:30:29
Part_0402      6.030005        254644      587   12551.63  19-01-2023 16:30:08
Part_0403      6.045004        255228      584   12484.78  19-01-2023 16:29:47
Part_0404      6.060013        255816      588   12580.08  19-01-2023 16:29:27
Part_0405      6.075007        256402      586   12519.65  19-01-2023 16:29:05
Part_0406      6.090001        256986      584   12471.15  19-01-2023 16:28:43
Part_0407      6.105002        257567      581   12404.70  19-01-2023 16:28:20
Part_0408      6.120009        258146      579   12360.83  19-01-2023 16:27:57
Part_0409      6.135020        258722      576   12305.57  19-01-2023 16:27:33
Part_0410      6.150022        259303      581   12388.72  19-01-2023 16:27:09
Part_0411      6.165025        259884      581   12389.44  19-01-2023 16:26:46
Part_0412      6.180021        260465      581   12395.28  19-01-2023 16:26:24
Part_0413      6.195002        261053      588   12559.16  19-01-2023 16:26:04
Part_0414      6.210003        261643      590   12607.86  19-01-2023 16:25:45
Part_0415      6.225006        262232      589   12558.01  19-01-2023 16:25:26
Part_0416      6.240023        262830      598   12725.72  19-01-2023 16:25:10
Part_0417      6.255008        263427      597   12736.49  19-01-2023 16:24:54
Part_0418      6.270002        264027      600   12797.52  19-01-2023 16:24:40
Part_0419      6.285004        264621      594   12645.19  19-01-2023 16:24:21
Part_0420      6.300002        265218      597   12716.37  19-01-2023 16:24:06
Part_0421      6.315009        265817      599   12807.84  19-01-2023 16:23:51
Part_0422      6.330024        266417      600   12822.11  19-01-2023 16:23:37
Part_0423      6.345018        267013      596   12706.78  19-01-2023 16:23:21
Part_0424      6.360017        267608      595   12684.72  19-01-2023 16:23:05
Part_0425      6.375000        268201      593   12661.40  19-01-2023 16:22:48
Part_0426      6.390005        268797      596   12715.90  19-01-2023 16:22:32
Part_0427      6.405024        269391      594   12663.90  19-01-2023 16:22:16
Part_0428      6.420002        269978      587   12561.12  19-01-2023 16:21:58
Part_0429      6.435004        270567      589   12623.36  19-01-2023 16:21:41
Part_0430      6.450001        271155      588   12553.87  19-01-2023 16:21:22
Part_0431      6.465019        271746      591   12597.87  19-01-2023 16:21:05
Part_0432      6.480005        272329      583   12434.38  19-01-2023 16:20:45
Part_0433      6.495011        272921      592   12620.63  19-01-2023 16:20:28
Part_0434      6.510003        273507      586   12505.69  19-01-2023 16:20:10
Part_0435      6.525017        274106      599   12750.57  19-01-2023 16:19:55
Part_0436      6.540025        274691      585   12493.11  19-01-2023 16:19:37
Part_0437      6.555003        275277      586   12502.67  19-01-2023 16:19:18
Part_0438      6.570013        275858      581   12372.21  19-01-2023 16:18:58
Part_0439      6.585009        276438      580   12364.51  19-01-2023 16:18:37
Part_0440      6.600008        277019      581   12395.93  19-01-2023 16:18:17
Part_0441      6.615022        277598      579   12329.07  19-01-2023 16:17:56
Part_0442      6.630004        278175      577   12305.02  19-01-2023 16:17:34
Part_0443      6.645000        278759      584   12441.98  19-01-2023 16:17:15
Part_0444      6.660003        279343      584   12424.48  19-01-2023 16:16:56
Part_0445      6.675017        279922      579   12316.53  19-01-2023 16:16:35
Part_0446      6.690003        280503      581   12409.16  19-01-2023 16:16:16
Part_0447      6.705023        281090      587   12532.99  19-01-2023 16:15:59
Part_0448      6.720007        281675      585   12499.26  19-01-2023 16:15:41
Part_0449      6.735020        282270      595   12698.66  19-01-2023 16:15:27
Part_0450      6.750005        282864      594   12689.09  19-01-2023 16:15:13
Part_0451      6.765024        283460      596   12730.16  19-01-2023 16:14:59
Part_0452      6.780011        284056      596   12751.82  19-01-2023 16:14:46
Part_0453      6.795008        284644      588   12568.76  19-01-2023 16:14:30
Part_0454      6.810012        285244      600   12787.09  19-01-2023 16:14:17
Part_0455      6.825016        285840      596   12705.43  19-01-2023 16:14:04
Part_0456      6.840015        286441      601   12806.36  19-01-2023 16:13:52
Part_0457      6.855020        287040      599   12746.29  19-01-2023 16:13:39
Part_0458      6.870019        287633      593   12626.18  19-01-2023 16:13:24
Part_0459      6.885001        288233      600   12823.81  19-01-2023 16:13:13
Part_0460      6.900000        288841      608   12952.37  19-01-2023 16:13:03
Part_0461      6.915007        289447      606   12895.85  19-01-2023 16:12:53
Part_0462      6.930015        290041      594   12644.15  19-01-2023 16:12:38
Part_0463      6.945006        290634      593   12652.41  19-01-2023 16:12:24
Part_0464      6.960019        291229      595   12664.98  19-01-2023 16:12:10
Part_0465      6.975016        291815      586   12503.19  19-01-2023 16:11:54
Part_0466      6.990001        292403      588   12566.09  19-01-2023 16:11:39
Part_0467      7.005001        292985      582   12437.77  19-01-2023 16:11:22
Part_0468      7.020005        293567      582   12444.30  19-01-2023 16:11:04
Part_0469      7.035013        294152      585   12471.42  19-01-2023 16:10:47
Part_0470      7.050000        294734      582   12437.93  19-01-2023 16:10:31
Part_0471      7.065015        295326      592   12614.84  19-01-2023 16:10:16
Part_0472      7.080017        295912      586   12523.86  19-01-2023 16:10:01
Part_0473      7.095013        296499      587   12561.34  19-01-2023 16:09:46
Part_0474      7.110011        297085      586   12571.29  19-01-2023 16:09:31
Part_0475      7.125018        297670      585   12506.17  19-01-2023 16:09:16
Part_0476      7.140006        298258      588   12585.56  19-01-2023 16:09:01
Part_0477      7.155023        298849      591   12630.61  19-01-2023 16:08:47
Part_0478      7.170019        299433      584   12484.69  19-01-2023 16:08:31
Part_0479      7.185011        300014      581   12434.08  19-01-2023 16:08:15
Part_0480      7.200020        300599      585   12521.96  19-01-2023 16:08:00
Part_0481      7.215008        301184      585   12514.62  19-01-2023 16:07:45
Part_0482      7.230021        301766      582   12430.00  19-01-2023 16:07:29
Part_0483      7.245023        302347      581   12429.17  19-01-2023 16:07:12
Part_0484      7.260000        302923      576   12321.91  19-01-2023 16:06:54
Part_0485      7.275001        303511      588   12566.66  19-01-2023 16:06:40
Part_0486      7.290015        304101      590   12603.65  19-01-2023 16:06:27
Part_0487      7.305022        304694      593   12663.26  19-01-2023 16:06:14
Part_0488      7.320003        305285      591   12674.47  19-01-2023 16:06:01
Part_0489      7.335020        305872      587   12543.47  19-01-2023 16:05:48
Part_0490      7.350007        306461      589   12616.42  19-01-2023 16:05:35
Part_0491      7.365017        307048      587   12577.52  19-01-2023 16:05:21
Part_0492      7.380025        307640      592   12669.29  19-01-2023 16:05:09
Part_0493      7.395008        308225      585   12571.41  19-01-2023 16:04:55
Part_0494      7.410000        308812      587   12542.46  19-01-2023 16:04:41
Part_0495      7.425005        309392      580   12368.20  19-01-2023 16:04:25
Part_0496      7.440011        309980      588   12518.47  19-01-2023 16:04:11
Part_0497      7.455020        310572      592   12582.11  19-01-2023 16:03:58
Part_0498      7.470008        311158      586   12478.79  19-01-2023 16:03:43
Part_0499      7.485003        311745      587   12471.51  19-01-2023 16:03:28
Part_0500      7.500006        312331      586   12450.08  19-01-2023 16:03:13

[Simulation finished  19-01-2023 16:03:13]
Particles of simulation (initial): 17291434
DTs adjusted to DtMin............: 0
Excluded particles...............: 0
Total Runtime....................: 100871.765625 sec.
Simulation Runtime...............: 100866.914062 sec.
Runtime per physical second......: 13448.911133 sec.
Steps per second.................: 3.096466
Steps of simulation..............: 312331
PART files.......................: 501
Maximum number of particles......: 17291434
Maximum number of cells..........: 1434804
CPU Memory.......................: 1556286928 (1484.19 MB)
GPU Memory.......................: 4666671969 (4450.49 MB)
 
[GPU Timers]
VA-Init..........................: 4.849995 sec.
NL-Limits........................: 119.312983 sec.
NL-PreSort.......................: 1.983763 sec.
NL-RadixSort.....................: 1246.733364 sec.
NL-CellBegin.....................: 70.525500 sec.
NL-SortData......................: 12.125385 sec.
NL-OutCheck......................: 4320.819719 sec.
CF-PreForces.....................: 6651.158615 sec.
CF-Forces........................: 85493.342387 sec.
SU-Shifting......................: 2.075236 sec.
SU-ComputeStep...................: 8.707821 sec.
SU-Floating......................: 20.049776 sec.
SU-Motion........................: 0 sec.
SU-Periodic......................: 0 sec.
SU-ResizeNp......................: 0 sec.
SU-DownData......................: 148.330880 sec.
SU-SavePart......................: 406.736022 sec.
SU-Chrono........................: 2361.716558 sec.
SU-Moorings......................: 0 sec.
SU-InOut.........................: 0 sec.
 
[Output files]
- CfgChrono_Scheme.vtk.......: Saves VTK file with scheme of Chrono objects and links between objects.
- CfgInit_Domain.vtk.........: Saves the limits of the case and the simulation domain limits.
- CfgInit_MapCells.vtk.......: Saves the cell division of the simulation domain.
- CfgInit_Normals.vtk........: Saves VTK file with initial normals (from boundary particles to boundary limit).
- CfgInit_NormalsGhost.vtk...: Saves VTK file with initial normals (from boundary particles to ghost node).
- Run.csv....................: One line CSV file with execution parameters and other simulation data.
- Run.out....................: Log file of the simulation.
- chrono_objs/XXXX_mkXXXX.obj: Geometry files used for Chrono interaction.
- data/PartFloat.fbi4........: Binary file with floating body information for each instant (input for FloatingInfo program).
- data/PartInfo.ibi4.........: Binary file with execution information for each instant (input for PartInfo program).
- data/PartOut_???.obi4......: Binary file with particles excluded during simulation (input for PartVtkOut program).
- data/Part_????.bi4.........: Binary file with particle data in different instants.
- data/Part_Head.ibi4........: Binary file with basic information of simulation data.
 
[WARNINGS]
1. It is advised that selected DDT: 'Fourtakas et al 2019 (full)' is used with several boundary layers of particles when h/dp>1.5 (2h <= layers*Dp)
 
[References]
- Official solver reference DualSPHysics v5.0: J.M. Dominguez, G. Fourtakas,
    C. Altomare, R.B. Canelas, A. Tafuni, O. Garcia-Feal, I. Martinez-Estevez,
    A. Mokos, R. Vacondio, A.J.C. Crespo, B.D. Rogers, P.K. Stansby, M. Gomez-Gesteira.
    2022. DualSPHysics: from fluid dynamics to multiphysics problems.
    Computational Particle Mechanics, 9:867-895. doi: https://doi.org/10.1007/s40571-021-00404-2

- Optimised CPU multi-core and GPU implementation (Dominguez et al., 2013  https://doi.org/10.1016/j.cpc.2012.10.015)
- Modified Dynamic boundary conditions (English et al., 2021  https://doi.org/10.1007/s40571-021-00403-3)
- Density diffusion Term: Fourtakas (Fourtakas et al., 2019  https://doi.org/10.1016/j.compfluid.2019.06.009)
- Viscosity: Laminar + SPS turbulence model (Dalrymple and Rogers, 2006  https://doi.org/10.1016/j.coastaleng.2005.10.004)
- Kernel: Quintic Wendland (Wendland, 1995  https://doi.org/10.1007/BF02123482)
- Time integration scheme: Symplectic (Leimkhuler, 1996  https://doi.org/10.1007/978-3-319-16375-8_1)
- Floating objects (Canelas et al., 2015  https://doi.org/10.1002/fld.4031)
- Coupling with Project Chrono (Canelas et al., 2018  https://doi.org/10.1016/j.apor.2018.04.015)
- Shifting algorithm (Lind et al., 2012  https://doi.org/10.1016/j.jcp.2011.10.027)

Finished execution (code=0).

